/*--------------------------------*- C++ -*----------------------------------*\
  =========                 |
  \\      /  F ield         | OpenFOAM: The Open Source CFD Toolbox
   \\    /   O peration     | Website:  https://openfoam.org
    \\  /    A nd           | Version:  6
     \\/     M anipulation  |
\*---------------------------------------------------------------------------*/
FoamFile
{
    version     2.0;
    format      ascii;
    class       featureEdgeMesh;
    location    "constant/triSurface";
    object      cylinder.eMesh;
}
// * * * * * * * * * * * * * * * * * * * * * * * * * * * * * * * * * * * * * //


// points:

6400
(
(0.68798 -3.3397 6.77157)
(0.701637 -3.34083 6.77083)
(0.701637 5.51037 -6.55795)
(0.68798 5.51149 -6.55721)
(0.714768 -3.34414 6.76863)
(0.714768 5.50705 -6.56015)
(0.72687 -3.34953 6.76505)
(0.72687 5.50166 -6.56373)
(0.737478 -3.35678 6.76023)
(0.737478 5.49441 -6.56855)
(0.746183 -3.36562 6.75436)
(0.746183 5.48557 -6.57442)
(0.752652 -3.3757 6.74767)
(0.752652 5.47549 -6.58111)
(0.756635 -3.38664 6.74041)
(0.756635 5.46455 -6.58838)
(0.75798 -3.39802 6.73285)
(0.75798 5.45317 -6.59593)
(0.756635 -3.40939 6.7253)
(0.756635 5.4418 -6.60348)
(0.752652 -3.42033 6.71803)
(0.752652 5.43086 -6.61075)
(0.746183 -3.43042 6.71134)
(0.746183 5.42078 -6.61744)
(0.737478 -3.43925 6.70547)
(0.737478 5.41194 -6.62331)
(0.72687 -3.4465 6.70065)
(0.72687 5.40469 -6.62813)
(0.714768 -3.45189 6.69707)
(0.714768 5.3993 -6.63171)
(0.701637 -3.45521 6.69487)
(0.701637 5.39598 -6.63391)
(0.68798 -3.45633 6.69413)
(0.68798 5.39486 -6.63465)
(0.674324 -3.45521 6.69487)
(0.674324 5.39598 -6.63391)
(0.661192 -3.45189 6.69707)
(0.661192 5.3993 -6.63171)
(0.64909 -3.4465 6.70065)
(0.64909 5.40469 -6.62813)
(0.638483 -3.43925 6.70547)
(0.638483 5.41194 -6.62331)
(0.629777 -3.43042 6.71134)
(0.629777 5.42078 -6.61744)
(0.623309 -3.42033 6.71803)
(0.623309 5.43086 -6.61075)
(0.619325 -3.40939 6.7253)
(0.619325 5.4418 -6.60348)
(0.61798 -3.39802 6.73285)
(0.61798 5.45317 -6.59593)
(0.619325 -3.38664 6.74041)
(0.619325 5.46455 -6.58838)
(0.623309 -3.3757 6.74767)
(0.623309 5.47549 -6.58111)
(0.629778 -3.36562 6.75436)
(0.629778 5.48557 -6.57442)
(0.638483 -3.35678 6.76023)
(0.638483 5.49441 -6.56855)
(0.649091 -3.34953 6.76505)
(0.649091 5.50166 -6.56373)
(0.661193 -3.34414 6.76863)
(0.661193 5.50705 -6.56015)
(0.674324 -3.34083 6.77083)
(0.674324 5.51037 -6.55795)
(-0.483422 -6.43446 -4.83625)
(-0.444404 -6.43259 -4.83961)
(-0.444404 7.54375 2.94897)
(-0.483422 7.54188 2.95233)
(-0.406885 -6.42705 -4.84955)
(-0.406885 7.54929 2.93903)
(-0.372308 -6.41805 -4.86569)
(-0.372308 7.55829 2.92289)
(-0.342001 -6.40594 -4.88742)
(-0.342001 7.5704 2.90116)
(-0.317128 -6.39119 -4.91389)
(-0.317128 7.58515 2.87469)
(-0.298646 -6.37436 -4.9441)
(-0.298646 7.60198 2.84448)
(-0.287265 -6.35609 -4.97687)
(-0.287265 7.62024 2.81171)
(-0.283422 -6.3371 -5.01095)
(-0.283422 7.63924 2.77763)
(-0.287265 -6.31811 -5.04504)
(-0.287265 7.65823 2.74354)
(-0.298646 -6.29984 -5.07781)
(-0.298646 7.6765 2.71077)
(-0.317128 -6.28301 -5.10801)
(-0.317128 7.69333 2.68056)
(-0.342001 -6.26826 -5.13449)
(-0.342001 7.70808 2.65409)
(-0.372308 -6.25615 -5.15622)
(-0.372308 7.72019 2.63236)
(-0.406885 -6.24715 -5.17236)
(-0.406885 7.72919 2.61622)
(-0.444404 -6.24161 -5.1823)
(-0.444404 7.73472 2.60628)
(-0.483422 -6.23974 -5.18566)
(-0.483422 7.7366 2.60292)
(-0.52244 -6.24161 -5.1823)
(-0.52244 7.73472 2.60628)
(-0.559959 -6.24715 -5.17236)
(-0.559959 7.72919 2.61622)
(-0.594536 -6.25615 -5.15622)
(-0.594536 7.72019 2.63236)
(-0.624843 -6.26826 -5.13449)
(-0.624843 7.70808 2.65409)
(-0.649716 -6.28301 -5.10801)
(-0.649716 7.69333 2.68056)
(-0.668198 -6.29984 -5.07781)
(-0.668198 7.6765 2.71077)
(-0.679579 -6.31811 -5.04504)
(-0.679579 7.65823 2.74354)
(-0.683422 -6.3371 -5.01095)
(-0.683422 7.63924 2.77763)
(-0.679579 -6.35609 -4.97687)
(-0.679579 7.62024 2.81171)
(-0.668198 -6.37436 -4.9441)
(-0.668198 7.60198 2.84448)
(-0.649716 -6.39119 -4.91389)
(-0.649716 7.58515 2.87469)
(-0.624843 -6.40594 -4.88742)
(-0.624843 7.57039 2.90116)
(-0.594536 -6.41805 -4.86569)
(-0.594536 7.55829 2.92289)
(-0.559958 -6.42705 -4.84955)
(-0.559958 7.54929 2.93903)
(-0.52244 -6.43259 -4.83961)
(-0.52244 7.54375 2.94897)
(-0.198544 -2.93669 8.02424)
(-0.159526 -2.94041 8.02328)
(-0.159526 1.06493 -7.46727)
(-0.198544 1.06865 -7.46631)
(-0.122007 -2.95143 8.02043)
(-0.122007 1.05391 -7.47012)
(-0.08743 -2.96932 8.01581)
(-0.08743 1.03602 -7.47475)
(-0.057123 -2.9934 8.00958)
(-0.057123 1.01193 -7.48098)
(-0.03225 -3.02274 8.00199)
(-0.03225 0.982592 -7.48856)
(-0.013768 -3.05622 7.99334)
(-0.013768 0.949116 -7.49722)
(-0.002387 -3.09254 7.98394)
(-0.002387 0.912792 -7.50661)
(0.001456 -3.13032 7.97418)
(0.001456 0.875017 -7.51638)
(-0.002387 -3.1681 7.96441)
(-0.002387 0.837241 -7.52614)
(-0.013768 -3.20442 7.95502)
(-0.013768 0.800917 -7.53554)
(-0.03225 -3.2379 7.94636)
(-0.03225 0.76744 -7.54419)
(-0.057123 -3.26724 7.93877)
(-0.057123 0.738098 -7.55178)
(-0.08743 -3.29132 7.93255)
(-0.08743 0.714017 -7.55801)
(-0.122007 -3.30921 7.92792)
(-0.122007 0.696124 -7.56263)
(-0.159526 -3.32023 7.92507)
(-0.159526 0.685105 -7.56548)
(-0.198544 -3.32395 7.92411)
(-0.198544 0.681385 -7.56644)
(-0.237562 -3.32023 7.92507)
(-0.237562 0.685105 -7.56548)
(-0.275081 -3.30921 7.92792)
(-0.275081 0.696124 -7.56263)
(-0.309658 -3.29132 7.93255)
(-0.309658 0.714017 -7.55801)
(-0.339966 -3.26724 7.93877)
(-0.339966 0.738098 -7.55178)
(-0.364838 -3.2379 7.94636)
(-0.364838 0.76744 -7.54419)
(-0.38332 -3.20442 7.95502)
(-0.38332 0.800917 -7.53554)
(-0.394701 -3.1681 7.96441)
(-0.394701 0.837241 -7.52614)
(-0.398544 -3.13032 7.97418)
(-0.398544 0.875017 -7.51638)
(-0.394701 -3.09254 7.98394)
(-0.394701 0.912793 -7.50661)
(-0.38332 -3.05622 7.99334)
(-0.38332 0.949116 -7.49722)
(-0.364838 -3.02274 8.00199)
(-0.364838 0.982593 -7.48856)
(-0.339965 -2.9934 8.00958)
(-0.339965 1.01193 -7.48098)
(-0.309658 -2.96932 8.01581)
(-0.309658 1.03602 -7.47475)
(-0.275081 -2.95143 8.02043)
(-0.275081 1.05391 -7.47012)
(-0.237562 -2.94041 8.02328)
(-0.237562 1.06493 -7.46727)
(-0.116486 -5.94112 7.25847)
(-0.077468 -5.94387 7.25579)
(-0.077468 5.21319 -4.21243)
(-0.116486 5.21594 -4.20975)
(-0.039949 -5.95203 7.24785)
(-0.039949 5.20503 -4.22036)
(-0.005372 -5.96528 7.23496)
(-0.005372 5.19178 -4.23325)
(0.024936 -5.98311 7.21762)
(0.024936 5.17396 -4.2506)
(0.049808 -6.00483 7.19649)
(0.049808 5.15223 -4.27173)
(0.06829 -6.02961 7.17238)
(0.06829 5.12745 -4.29584)
(0.079671 -6.05651 7.14621)
(0.079671 5.10056 -4.322)
(0.083514 -6.08447 7.11901)
(0.083514 5.07259 -4.34921)
(0.079671 -6.11244 7.0918)
(0.079671 5.04462 -4.37642)
(0.06829 -6.13933 7.06564)
(0.06829 5.01773 -4.40258)
(0.049808 -6.16411 7.04152)
(0.049808 4.99295 -4.42669)
(0.024936 -6.18584 7.02039)
(0.024936 4.97123 -4.44782)
(-0.005372 -6.20366 7.00305)
(-0.005372 4.9534 -4.46517)
(-0.039949 -6.21691 6.99016)
(-0.039949 4.94015 -4.47806)
(-0.077468 -6.22507 6.98222)
(-0.077468 4.93199 -4.48599)
(-0.116486 -6.22783 6.97954)
(-0.116486 4.92924 -4.48867)
(-0.155504 -6.22507 6.98222)
(-0.155504 4.93199 -4.48599)
(-0.193022 -6.21691 6.99016)
(-0.193022 4.94015 -4.47806)
(-0.2276 -6.20366 7.00305)
(-0.2276 4.9534 -4.46517)
(-0.257907 -6.18584 7.02039)
(-0.257907 4.97123 -4.44782)
(-0.28278 -6.16411 7.04152)
(-0.28278 4.99295 -4.42669)
(-0.301262 -6.13933 7.06564)
(-0.301262 5.01773 -4.40258)
(-0.312643 -6.11244 7.0918)
(-0.312643 5.04462 -4.37642)
(-0.316486 -6.08447 7.11901)
(-0.316486 5.07259 -4.34921)
(-0.312643 -6.05651 7.14621)
(-0.312643 5.10056 -4.322)
(-0.301261 -6.02961 7.17238)
(-0.301261 5.12745 -4.29584)
(-0.282779 -6.00483 7.19649)
(-0.282779 5.15224 -4.27173)
(-0.257907 -5.98311 7.21762)
(-0.257907 5.17396 -4.25059)
(-0.2276 -5.96528 7.23496)
(-0.2276 5.19178 -4.23325)
(-0.193022 -5.95203 7.24785)
(-0.193022 5.20503 -4.22036)
(-0.155503 -5.94387 7.25579)
(-0.155503 5.21319 -4.21243)
(-0.295111 -3.29619 6.94526)
(-0.256093 -3.2997 6.9437)
(-0.256093 3.21881 -7.66825)
(-0.295111 3.22232 -7.66669)
(-0.218574 -3.31009 6.93906)
(-0.218574 3.20841 -7.67289)
(-0.183997 -3.32697 6.93153)
(-0.183997 3.19153 -7.68042)
(-0.153689 -3.34968 6.9214)
(-0.153689 3.16882 -7.69055)
(-0.128817 -3.37736 6.90905)
(-0.128817 3.14114 -7.7029)
(-0.110335 -3.40894 6.89497)
(-0.110335 3.10956 -7.71699)
(-0.098954 -3.4432 6.87968)
(-0.098954 3.0753 -7.73227)
(-0.095111 -3.47884 6.86378)
(-0.095111 3.03967 -7.74817)
(-0.098954 -3.51447 6.84789)
(-0.098954 3.00403 -7.76406)
(-0.110335 -3.54873 6.8326)
(-0.110335 2.96977 -7.77935)
(-0.128817 -3.58031 6.81851)
(-0.128817 2.93819 -7.79344)
(-0.153689 -3.60799 6.80617)
(-0.153689 2.91051 -7.80578)
(-0.183997 -3.63071 6.79603)
(-0.183997 2.8878 -7.81592)
(-0.218574 -3.64758 6.78851)
(-0.218574 2.87092 -7.82345)
(-0.256093 -3.65798 6.78387)
(-0.256093 2.86053 -7.82808)
(-0.295111 -3.66149 6.7823)
(-0.295111 2.85702 -7.82965)
(-0.334129 -3.65798 6.78387)
(-0.334129 2.86053 -7.82808)
(-0.371648 -3.64758 6.78851)
(-0.371648 2.87092 -7.82345)
(-0.406225 -3.63071 6.79603)
(-0.406225 2.8878 -7.81592)
(-0.436532 -3.60799 6.80617)
(-0.436532 2.91051 -7.80578)
(-0.461405 -3.58031 6.81851)
(-0.461405 2.93819 -7.79344)
(-0.479887 -3.54873 6.8326)
(-0.479887 2.96977 -7.77935)
(-0.491268 -3.51447 6.84789)
(-0.491268 3.00403 -7.76406)
(-0.495111 -3.47884 6.86378)
(-0.495111 3.03967 -7.74817)
(-0.491268 -3.4432 6.87968)
(-0.491268 3.0753 -7.73227)
(-0.479887 -3.40894 6.89497)
(-0.479887 3.10956 -7.71699)
(-0.461405 -3.37736 6.90905)
(-0.461405 3.14114 -7.7029)
(-0.436532 -3.34968 6.9214)
(-0.436532 3.16882 -7.69055)
(-0.406225 -3.32697 6.93153)
(-0.406225 3.19153 -7.68042)
(-0.371647 -3.31009 6.93906)
(-0.371647 3.20841 -7.67289)
(-0.334129 -3.2997 6.9437)
(-0.334129 3.21881 -7.66825)
(-0.049189 -2.6194 -8.4857)
(-0.010171 -2.61603 -8.48755)
(-0.010171 5.09555 5.53142)
(-0.049189 5.09219 5.53327)
(0.027348 -2.60606 -8.49304)
(0.027348 5.10552 5.52593)
(0.061925 -2.58987 -8.50194)
(0.061925 5.12172 5.51702)
(0.092232 -2.56807 -8.51393)
(0.092232 5.14351 5.50504)
(0.117105 -2.54152 -8.52854)
(0.117105 5.17006 5.49043)
(0.135587 -2.51122 -8.5452)
(0.135587 5.20036 5.47376)
(0.146968 -2.47835 -8.56329)
(0.146968 5.23323 5.45568)
(0.150811 -2.44416 -8.58209)
(0.150811 5.26742 5.43687)
(0.146968 -2.40998 -8.6009)
(0.146968 5.30161 5.41807)
(0.135587 -2.3771 -8.61898)
(0.135587 5.33448 5.39999)
(0.117105 -2.34681 -8.63565)
(0.117105 5.36478 5.38332)
(0.092232 -2.32025 -8.65026)
(0.092232 5.39133 5.36871)
(0.061925 -2.29846 -8.66224)
(0.061925 5.41313 5.35673)
(0.027348 -2.28226 -8.67115)
(0.027348 5.42932 5.34782)
(-0.010171 -2.27229 -8.67664)
(-0.010171 5.43929 5.34233)
(-0.049189 -2.26892 -8.67849)
(-0.049189 5.44266 5.34048)
(-0.088207 -2.27229 -8.67664)
(-0.088207 5.43929 5.34233)
(-0.125726 -2.28226 -8.67115)
(-0.125726 5.42932 5.34782)
(-0.160303 -2.29846 -8.66224)
(-0.160303 5.41313 5.35673)
(-0.19061 -2.32025 -8.65026)
(-0.19061 5.39133 5.36871)
(-0.215483 -2.34681 -8.63565)
(-0.215483 5.36478 5.38332)
(-0.233965 -2.3771 -8.61898)
(-0.233965 5.33448 5.39999)
(-0.245346 -2.40998 -8.6009)
(-0.245346 5.30161 5.41807)
(-0.249189 -2.44416 -8.58209)
(-0.249189 5.26742 5.43687)
(-0.245346 -2.47835 -8.56329)
(-0.245346 5.23323 5.45568)
(-0.233965 -2.51122 -8.5452)
(-0.233965 5.20036 5.47376)
(-0.215483 -2.54152 -8.52854)
(-0.215483 5.17006 5.49043)
(-0.19061 -2.56807 -8.51393)
(-0.19061 5.14351 5.50504)
(-0.160303 -2.58987 -8.50194)
(-0.160303 5.12172 5.51702)
(-0.125725 -2.60606 -8.49304)
(-0.125725 5.10552 5.52593)
(-0.088207 -2.61603 -8.48755)
(-0.088207 5.09555 5.53142)
(-0.19164 -6.95634 -4.79887)
(-0.152622 -6.95481 -4.8024)
(-0.152622 7.73295 1.54342)
(-0.19164 7.73143 1.54695)
(-0.115104 -6.9503 -4.81285)
(-0.115104 7.73747 1.53298)
(-0.080526 -6.94297 -4.82981)
(-0.080526 7.7448 1.51601)
(-0.050219 -6.9331 -4.85265)
(-0.050219 7.75466 1.49318)
(-0.025346 -6.92108 -4.88047)
(-0.025346 7.76668 1.46536)
(-0.006864 -6.90737 -4.91221)
(-0.006864 7.7804 1.43361)
(0.004517 -6.89249 -4.94665)
(0.004517 7.79528 1.39917)
(0.00836 -6.87702 -4.98247)
(0.00836 7.81075 1.36336)
(0.004517 -6.86154 -5.01829)
(0.004517 7.82623 1.32754)
(-0.006864 -6.84666 -5.05273)
(-0.006864 7.84111 1.2931)
(-0.025346 -6.83294 -5.08447)
(-0.025346 7.85482 1.26136)
(-0.050219 -6.82093 -5.11229)
(-0.050219 7.86684 1.23353)
(-0.080526 -6.81106 -5.13513)
(-0.080526 7.87671 1.2107)
(-0.115104 -6.80373 -5.15209)
(-0.115104 7.88404 1.19373)
(-0.152622 -6.79921 -5.16254)
(-0.152622 7.88855 1.18329)
(-0.19164 -6.79769 -5.16607)
(-0.19164 7.89008 1.17976)
(-0.230658 -6.79921 -5.16254)
(-0.230658 7.88855 1.18329)
(-0.268177 -6.80373 -5.15209)
(-0.268177 7.88404 1.19373)
(-0.302754 -6.81106 -5.13513)
(-0.302754 7.87671 1.2107)
(-0.333062 -6.82093 -5.11229)
(-0.333062 7.86684 1.23353)
(-0.357934 -6.83294 -5.08447)
(-0.357934 7.85482 1.26136)
(-0.376416 -6.84666 -5.05273)
(-0.376416 7.84111 1.2931)
(-0.387797 -6.86154 -5.01829)
(-0.387797 7.82623 1.32754)
(-0.39164 -6.87702 -4.98247)
(-0.39164 7.81075 1.36336)
(-0.387797 -6.89249 -4.94665)
(-0.387797 7.79528 1.39917)
(-0.376416 -6.90737 -4.91221)
(-0.376416 7.7804 1.43361)
(-0.357934 -6.92108 -4.88047)
(-0.357934 7.76668 1.46536)
(-0.333061 -6.9331 -4.85265)
(-0.333061 7.75466 1.49318)
(-0.302754 -6.94297 -4.82981)
(-0.302754 7.7448 1.51601)
(-0.268177 -6.9503 -4.81285)
(-0.268177 7.73747 1.53298)
(-0.230658 -6.95481 -4.8024)
(-0.230658 7.73295 1.54342)
(-0.482482 -8.21119 -0.548839)
(-0.443464 -8.21033 -0.552584)
(-0.443464 7.38451 3.02526)
(-0.482482 7.38365 3.02901)
(-0.405946 -8.20778 -0.563677)
(-0.405946 7.38706 3.01417)
(-0.371368 -8.20365 -0.581691)
(-0.371368 7.39119 2.99615)
(-0.341061 -8.19809 -0.605934)
(-0.341061 7.39675 2.97191)
(-0.316188 -8.19131 -0.635474)
(-0.316188 7.40353 2.94237)
(-0.297706 -8.18358 -0.669176)
(-0.297706 7.41126 2.90867)
(-0.286325 -8.17519 -0.705745)
(-0.286325 7.41965 2.8721)
(-0.282482 -8.16646 -0.743774)
(-0.282482 7.42838 2.83407)
(-0.286325 -8.15774 -0.781804)
(-0.286325 7.4371 2.79604)
(-0.297706 -8.14935 -0.818373)
(-0.297706 7.44549 2.75947)
(-0.316188 -8.14162 -0.852075)
(-0.316188 7.45322 2.72577)
(-0.341061 -8.13484 -0.881614)
(-0.341061 7.46 2.69623)
(-0.371368 -8.12928 -0.905857)
(-0.371368 7.46556 2.67199)
(-0.405946 -8.12514 -0.923871)
(-0.405946 7.46969 2.65397)
(-0.443464 -8.1226 -0.934964)
(-0.443464 7.47224 2.64288)
(-0.482482 -8.12174 -0.93871)
(-0.482482 7.4731 2.63913)
(-0.5215 -8.1226 -0.934964)
(-0.5215 7.47224 2.64288)
(-0.559019 -8.12514 -0.923871)
(-0.559019 7.46969 2.65397)
(-0.593596 -8.12928 -0.905857)
(-0.593596 7.46556 2.67199)
(-0.623904 -8.13484 -0.881614)
(-0.623904 7.46 2.69623)
(-0.648776 -8.14162 -0.852074)
(-0.648776 7.45322 2.72577)
(-0.667258 -8.14935 -0.818373)
(-0.667258 7.44549 2.75947)
(-0.678639 -8.15774 -0.781804)
(-0.678639 7.4371 2.79604)
(-0.682482 -8.16646 -0.743774)
(-0.682482 7.42838 2.83407)
(-0.678639 -8.17519 -0.705743)
(-0.678639 7.41965 2.8721)
(-0.667258 -8.18358 -0.669176)
(-0.667258 7.41126 2.90867)
(-0.648776 -8.19131 -0.635474)
(-0.648776 7.40353 2.94237)
(-0.623903 -8.19809 -0.605934)
(-0.623903 7.39675 2.97191)
(-0.593596 -8.20365 -0.581691)
(-0.593596 7.39119 2.99615)
(-0.559019 -8.20778 -0.563677)
(-0.559019 7.38706 3.01417)
(-0.5215 -8.21033 -0.552584)
(-0.5215 7.38451 3.02526)
(-0.255215 -1.75551 7.55262)
(-0.216197 -1.75916 7.55142)
(-0.216197 3.21141 -7.65691)
(-0.255215 3.21506 -7.65572)
(-0.178678 -1.76998 7.54789)
(-0.178678 3.20059 -7.66045)
(-0.144101 -1.78755 7.54214)
(-0.144101 3.18302 -7.66619)
(-0.113794 -1.81119 7.53442)
(-0.113794 3.15938 -7.67392)
(-0.088921 -1.84 7.525)
(-0.088921 3.13058 -7.68333)
(-0.070439 -1.87286 7.51426)
(-0.070439 3.09771 -7.69407)
(-0.059058 -1.90852 7.5026)
(-0.059058 3.06205 -7.70573)
(-0.055215 -1.94561 7.49048)
(-0.055215 3.02496 -7.71785)
(-0.059058 -1.9827 7.47836)
(-0.059058 2.98787 -7.72997)
(-0.070439 -2.01836 7.46671)
(-0.070439 2.95221 -7.74163)
(-0.088921 -2.05123 7.45597)
(-0.088921 2.91934 -7.75237)
(-0.113794 -2.08003 7.44655)
(-0.113794 2.89054 -7.76179)
(-0.144101 -2.10368 7.43882)
(-0.144101 2.86689 -7.76951)
(-0.178678 -2.12124 7.43308)
(-0.178678 2.84933 -7.77525)
(-0.216197 -2.13206 7.42954)
(-0.216197 2.83851 -7.77879)
(-0.255215 -2.13572 7.42835)
(-0.255215 2.83486 -7.77998)
(-0.294233 -2.13206 7.42954)
(-0.294233 2.83851 -7.77879)
(-0.331752 -2.12124 7.43308)
(-0.331752 2.84933 -7.77525)
(-0.366329 -2.10368 7.43882)
(-0.366329 2.86689 -7.76951)
(-0.396636 -2.08003 7.44655)
(-0.396636 2.89054 -7.76179)
(-0.421509 -2.05123 7.45597)
(-0.421509 2.91934 -7.75237)
(-0.439991 -2.01836 7.46671)
(-0.439991 2.95221 -7.74163)
(-0.451372 -1.9827 7.47836)
(-0.451372 2.98787 -7.72997)
(-0.455215 -1.94561 7.49048)
(-0.455215 3.02496 -7.71785)
(-0.451372 -1.90852 7.5026)
(-0.451372 3.06205 -7.70573)
(-0.439991 -1.87286 7.51426)
(-0.439991 3.09771 -7.69407)
(-0.421509 -1.84 7.525)
(-0.421509 3.13058 -7.68333)
(-0.396636 -1.81119 7.53442)
(-0.396636 3.15938 -7.67392)
(-0.366329 -1.78754 7.54214)
(-0.366329 3.18302 -7.66619)
(-0.331751 -1.76998 7.54789)
(-0.331751 3.20059 -7.66045)
(-0.294233 -1.75916 7.55142)
(-0.294233 3.21141 -7.65691)
(0.037317 -6.2513 -1.46159)
(0.076335 -6.24955 -1.46502)
(0.076335 8.01055 5.79099)
(0.037317 8.0088 5.79441)
(0.113853 -6.24439 -1.47516)
(0.113853 8.01571 5.78084)
(0.148431 -6.23601 -1.49163)
(0.148431 8.02409 5.76437)
(0.178738 -6.22473 -1.5138)
(0.178738 8.03537 5.7422)
(0.203611 -6.21099 -1.54081)
(0.203611 8.04911 5.71519)
(0.222093 -6.1953 -1.57163)
(0.222093 8.06479 5.68437)
(0.233474 -6.17829 -1.60507)
(0.233474 8.08181 5.65094)
(0.237317 -6.16059 -1.63984)
(0.237317 8.0995 5.61616)
(0.233474 -6.1429 -1.67462)
(0.233474 8.1172 5.58139)
(0.222093 -6.12589 -1.70806)
(0.222093 8.13421 5.54795)
(0.203611 -6.11021 -1.73888)
(0.203611 8.14989 5.51713)
(0.178738 -6.09646 -1.76589)
(0.178738 8.16364 5.49012)
(0.148431 -6.08518 -1.78805)
(0.148431 8.17492 5.46795)
(0.113853 -6.0768 -1.80453)
(0.113853 8.1833 5.45148)
(0.076335 -6.07164 -1.81467)
(0.076335 8.18846 5.44133)
(0.037317 -6.06989 -1.81809)
(0.037317 8.1902 5.43791)
(-0.001701 -6.07164 -1.81467)
(-0.001701 8.18846 5.44133)
(-0.03922 -6.0768 -1.80453)
(-0.03922 8.1833 5.45148)
(-0.073797 -6.08518 -1.78805)
(-0.073797 8.17492 5.46795)
(-0.104105 -6.09646 -1.76589)
(-0.104105 8.16364 5.49012)
(-0.128977 -6.11021 -1.73888)
(-0.128977 8.14989 5.51713)
(-0.147459 -6.12589 -1.70806)
(-0.147459 8.13421 5.54795)
(-0.15884 -6.1429 -1.67462)
(-0.15884 8.1172 5.58139)
(-0.162683 -6.16059 -1.63984)
(-0.162683 8.0995 5.61616)
(-0.15884 -6.17829 -1.60507)
(-0.15884 8.08181 5.65094)
(-0.147459 -6.1953 -1.57163)
(-0.147459 8.06479 5.68437)
(-0.128977 -6.21099 -1.54081)
(-0.128977 8.04911 5.71519)
(-0.104104 -6.22473 -1.5138)
(-0.104104 8.03537 5.7422)
(-0.073797 -6.23601 -1.49163)
(-0.073797 8.02409 5.76437)
(-0.03922 -6.24439 -1.47516)
(-0.03922 8.01571 5.78084)
(-0.001701 -6.24955 -1.46502)
(-0.001701 8.01055 5.79099)
(0.126288 -8.34308 1.53273)
(0.165306 -8.34464 1.52922)
(0.165306 6.27243 -4.9778)
(0.126288 6.27399 -4.97429)
(0.202825 -8.34927 1.51883)
(0.202825 6.2678 -4.9882)
(0.237402 -8.35678 1.50194)
(0.237402 6.26028 -5.00508)
(0.267709 -8.3669 1.47922)
(0.267709 6.25017 -5.0278)
(0.292582 -8.37923 1.45153)
(0.292582 6.23784 -5.05549)
(0.311064 -8.39329 1.41994)
(0.311064 6.22378 -5.08708)
(0.322445 -8.40855 1.38567)
(0.322445 6.20852 -5.12136)
(0.326288 -8.42442 1.35002)
(0.326288 6.19265 -5.157)
(0.322445 -8.44028 1.31437)
(0.322445 6.17678 -5.19265)
(0.311064 -8.45554 1.2801)
(0.311064 6.16153 -5.22692)
(0.292582 -8.4696 1.24851)
(0.292582 6.14747 -5.25851)
(0.267709 -8.48193 1.22082)
(0.267709 6.13514 -5.2862)
(0.237402 -8.49204 1.1981)
(0.237402 6.12502 -5.30892)
(0.202825 -8.49956 1.18122)
(0.202825 6.11751 -5.32581)
(0.165306 -8.50419 1.17082)
(0.165306 6.11288 -5.3362)
(0.126288 -8.50575 1.16731)
(0.126288 6.11132 -5.33972)
(0.08727 -8.50419 1.17082)
(0.08727 6.11288 -5.3362)
(0.049751 -8.49956 1.18122)
(0.049751 6.11751 -5.32581)
(0.015174 -8.49204 1.1981)
(0.015174 6.12502 -5.30892)
(-0.015134 -8.48193 1.22082)
(-0.015134 6.13514 -5.2862)
(-0.040006 -8.4696 1.24851)
(-0.040006 6.14747 -5.25851)
(-0.058488 -8.45554 1.2801)
(-0.058488 6.16153 -5.22692)
(-0.069869 -8.44028 1.31438)
(-0.069869 6.17678 -5.19265)
(-0.073712 -8.42441 1.35002)
(-0.073712 6.19265 -5.157)
(-0.069869 -8.40855 1.38567)
(-0.069869 6.20852 -5.12136)
(-0.058488 -8.39329 1.41994)
(-0.058488 6.22378 -5.08708)
(-0.040006 -8.37923 1.45153)
(-0.040006 6.23784 -5.05549)
(-0.015133 -8.3669 1.47922)
(-0.015133 6.25017 -5.0278)
(0.015174 -8.35678 1.50194)
(0.015174 6.26028 -5.00508)
(0.049751 -8.34927 1.51883)
(0.049751 6.2678 -4.9882)
(0.08727 -8.34464 1.52922)
(0.08727 6.27243 -4.9778)
(-0.422966 -9.28687 0.256065)
(-0.383948 -9.28761 0.252293)
(-0.383948 6.4168 -2.80902)
(-0.422966 6.41753 -2.80524)
(-0.346429 -9.28978 0.241122)
(-0.346429 6.41462 -2.82019)
(-0.311852 -9.29332 0.222982)
(-0.311852 6.41109 -2.83833)
(-0.281545 -9.29808 0.198569)
(-0.281545 6.40633 -2.86274)
(-0.256672 -9.30388 0.168821)
(-0.256672 6.40053 -2.89249)
(-0.23819 -9.31049 0.134883)
(-0.23819 6.39391 -2.92643)
(-0.226809 -9.31767 0.098057)
(-0.226809 6.38673 -2.96325)
(-0.222966 -9.32514 0.05976)
(-0.222966 6.37927 -3.00155)
(-0.226809 -9.3326 0.021463)
(-0.226809 6.3718 -3.03985)
(-0.23819 -9.33978 -0.015362)
(-0.23819 6.36462 -3.07667)
(-0.256672 -9.3464 -0.049301)
(-0.256672 6.35801 -3.11061)
(-0.281545 -9.3522 -0.079049)
(-0.281545 6.35221 -3.14036)
(-0.311852 -9.35696 -0.103462)
(-0.311852 6.34745 -3.16477)
(-0.346429 -9.36049 -0.121602)
(-0.346429 6.34391 -3.18291)
(-0.383948 -9.36267 -0.132773)
(-0.383948 6.34174 -3.19408)
(-0.422966 -9.36341 -0.136545)
(-0.422966 6.341 -3.19785)
(-0.461984 -9.36267 -0.132773)
(-0.461984 6.34174 -3.19408)
(-0.499503 -9.36049 -0.121602)
(-0.499503 6.34391 -3.18291)
(-0.53408 -9.35696 -0.103461)
(-0.53408 6.34745 -3.16477)
(-0.564387 -9.3522 -0.079049)
(-0.564387 6.35221 -3.14036)
(-0.58926 -9.3464 -0.049301)
(-0.58926 6.35801 -3.11061)
(-0.607742 -9.33978 -0.015362)
(-0.607742 6.36462 -3.07667)
(-0.619123 -9.3326 0.021463)
(-0.619123 6.3718 -3.03985)
(-0.622966 -9.32514 0.05976)
(-0.622966 6.37927 -3.00155)
(-0.619123 -9.31767 0.098058)
(-0.619123 6.38673 -2.96325)
(-0.607742 -9.31049 0.134883)
(-0.607742 6.39391 -2.92643)
(-0.58926 -9.30388 0.168821)
(-0.58926 6.40053 -2.89249)
(-0.564387 -9.29808 0.198569)
(-0.564387 6.40633 -2.86274)
(-0.53408 -9.29332 0.222982)
(-0.53408 6.41109 -2.83833)
(-0.499502 -9.28978 0.241122)
(-0.499502 6.41462 -2.82019)
(-0.461984 -9.28761 0.252293)
(-0.461984 6.4168 -2.80902)
(1.48503 -7.37881 -4.15284)
(1.52405 -7.37694 -4.1562)
(1.52405 6.5994 3.63238)
(1.48503 6.59753 3.63574)
(1.56157 -7.3714 -4.16614)
(1.56157 6.60494 3.62244)
(1.59614 -7.3624 -4.18228)
(1.59614 6.61394 3.60629)
(1.62645 -7.35029 -4.20401)
(1.62645 6.62604 3.58457)
(1.65132 -7.33554 -4.23049)
(1.65132 6.6408 3.55809)
(1.6698 -7.31871 -4.26069)
(1.6698 6.65763 3.52789)
(1.68119 -7.30045 -4.29346)
(1.68119 6.67589 3.49512)
(1.68503 -7.28145 -4.32755)
(1.68503 6.69489 3.46103)
(1.68119 -7.26246 -4.36163)
(1.68119 6.71388 3.42695)
(1.66981 -7.24419 -4.3944)
(1.66981 6.73214 3.39418)
(1.65132 -7.22736 -4.42461)
(1.65132 6.74898 3.36397)
(1.62645 -7.21261 -4.45108)
(1.62645 6.76373 3.3375)
(1.59614 -7.2005 -4.47281)
(1.59614 6.77584 3.31577)
(1.56157 -7.1915 -4.48895)
(1.56157 6.78483 3.29963)
(1.52405 -7.18597 -4.49889)
(1.52405 6.79037 3.28969)
(1.48503 -7.18409 -4.50225)
(1.48503 6.79224 3.28633)
(1.44601 -7.18597 -4.49889)
(1.44601 6.79037 3.28969)
(1.40849 -7.1915 -4.48895)
(1.40849 6.78483 3.29963)
(1.37391 -7.2005 -4.47281)
(1.37391 6.77584 3.31577)
(1.34361 -7.21261 -4.45108)
(1.34361 6.76373 3.3375)
(1.31874 -7.22736 -4.42461)
(1.31874 6.74897 3.36397)
(1.30025 -7.24419 -4.3944)
(1.30025 6.73214 3.39418)
(1.28887 -7.26246 -4.36163)
(1.28887 6.71388 3.42695)
(1.28503 -7.28145 -4.32755)
(1.28503 6.69489 3.46103)
(1.28887 -7.30045 -4.29346)
(1.28887 6.67589 3.49512)
(1.30025 -7.31871 -4.26069)
(1.30025 6.65763 3.52789)
(1.31874 -7.33554 -4.23049)
(1.31874 6.6408 3.55809)
(1.34361 -7.35029 -4.20401)
(1.34361 6.62604 3.58457)
(1.37391 -7.3624 -4.18228)
(1.37391 6.61394 3.60629)
(1.40849 -7.3714 -4.16614)
(1.40849 6.60494 3.62244)
(1.44601 -7.37694 -4.1562)
(1.44601 6.5994 3.63238)
(1.08325 -3.44901 8.97986)
(1.12227 -3.45273 8.9789)
(1.12227 0.552604 -6.51166)
(1.08325 0.556324 -6.5107)
(1.15979 -3.46375 8.97605)
(1.15979 0.541585 -6.51451)
(1.19436 -3.48165 8.97142)
(1.19436 0.523691 -6.51913)
(1.22467 -3.50572 8.96519)
(1.22467 0.499611 -6.52536)
(1.24954 -3.53507 8.95761)
(1.24954 0.470268 -6.53295)
(1.26803 -3.56855 8.94895)
(1.26803 0.436792 -6.5416)
(1.27941 -3.60487 8.93956)
(1.27941 0.400468 -6.551)
(1.28325 -3.64264 8.92979)
(1.28325 0.362692 -6.56076)
(1.27941 -3.68042 8.92002)
(1.27941 0.324916 -6.57053)
(1.26803 -3.71674 8.91063)
(1.26803 0.288592 -6.57992)
(1.24954 -3.75022 8.90197)
(1.24954 0.255116 -6.58858)
(1.22467 -3.77956 8.89439)
(1.22467 0.225774 -6.59617)
(1.19436 -3.80364 8.88816)
(1.19436 0.201693 -6.60239)
(1.15979 -3.82154 8.88354)
(1.15979 0.183799 -6.60702)
(1.12227 -3.83256 8.88069)
(1.12227 0.172781 -6.60987)
(1.08325 -3.83628 8.87972)
(1.08325 0.16906 -6.61083)
(1.04423 -3.83256 8.88069)
(1.04423 0.172781 -6.60987)
(1.00671 -3.82154 8.88354)
(1.00671 0.1838 -6.60702)
(0.972136 -3.80364 8.88816)
(0.972136 0.201693 -6.60239)
(0.941828 -3.77956 8.89439)
(0.941828 0.225774 -6.59617)
(0.916956 -3.75022 8.90197)
(0.916956 0.255116 -6.58858)
(0.898474 -3.71674 8.91063)
(0.898474 0.288592 -6.57992)
(0.887093 -3.68042 8.92002)
(0.887093 0.324917 -6.57053)
(0.88325 -3.64264 8.92979)
(0.88325 0.362692 -6.56076)
(0.887093 -3.60487 8.93956)
(0.887093 0.400468 -6.551)
(0.898474 -3.56855 8.94895)
(0.898474 0.436792 -6.5416)
(0.916956 -3.53507 8.95761)
(0.916956 0.470269 -6.53295)
(0.941829 -3.50572 8.96519)
(0.941829 0.499611 -6.52536)
(0.972136 -3.48165 8.97142)
(0.972136 0.523692 -6.51913)
(1.00671 -3.46375 8.97605)
(1.00671 0.541585 -6.51451)
(1.04423 -3.45273 8.9789)
(1.04423 0.552604 -6.51166)
(1.03776 -7.32187 4.12983)
(1.07678 -7.32462 4.12715)
(1.07678 3.83244 -7.34106)
(1.03776 3.8352 -7.33839)
(1.1143 -7.33278 4.11921)
(1.1143 3.82429 -7.349)
(1.14888 -7.34603 4.10633)
(1.14888 3.81104 -7.36189)
(1.17918 -7.36385 4.08898)
(1.17918 3.79321 -7.37923)
(1.20406 -7.38558 4.06785)
(1.20406 3.77149 -7.40037)
(1.22254 -7.41036 4.04374)
(1.22254 3.7467 -7.42448)
(1.23392 -7.43725 4.01757)
(1.23392 3.71981 -7.45064)
(1.23776 -7.46522 3.99037)
(1.23776 3.69184 -7.47785)
(1.23392 -7.49319 3.96316)
(1.23392 3.66388 -7.50506)
(1.22254 -7.52008 3.937)
(1.22254 3.63699 -7.53122)
(1.20406 -7.54486 3.91288)
(1.20406 3.6122 -7.55533)
(1.17918 -7.56658 3.89175)
(1.17918 3.59048 -7.57646)
(1.14888 -7.58441 3.87441)
(1.14888 3.57265 -7.59381)
(1.1143 -7.59766 3.86152)
(1.1143 3.5594 -7.6067)
(1.07678 -7.60582 3.85358)
(1.07678 3.55125 -7.61463)
(1.03776 -7.60857 3.8509)
(1.03776 3.54849 -7.61731)
(0.998745 -7.60582 3.85358)
(0.998745 3.55125 -7.61463)
(0.961226 -7.59766 3.86152)
(0.961226 3.5594 -7.6067)
(0.926649 -7.58441 3.87441)
(0.926649 3.57265 -7.59381)
(0.896341 -7.56658 3.89175)
(0.896341 3.59048 -7.57646)
(0.871469 -7.54486 3.91288)
(0.871469 3.6122 -7.55533)
(0.852987 -7.52008 3.937)
(0.852987 3.63699 -7.53122)
(0.841606 -7.49319 3.96316)
(0.841606 3.66388 -7.50505)
(0.837763 -7.46522 3.99037)
(0.837763 3.69184 -7.47785)
(0.841606 -7.43725 4.01757)
(0.841606 3.71981 -7.45064)
(0.852987 -7.41036 4.04374)
(0.852987 3.7467 -7.42448)
(0.871469 -7.38558 4.06785)
(0.871469 3.77149 -7.40037)
(0.896342 -7.36385 4.08898)
(0.896342 3.79321 -7.37923)
(0.926649 -7.34602 4.10633)
(0.926649 3.81104 -7.36189)
(0.961226 -7.33278 4.11921)
(0.961226 3.82429 -7.349)
(0.998745 -7.32462 4.12715)
(0.998745 3.83244 -7.34106)
(1.23751 -4.46665 9.38383)
(1.27653 -4.47016 9.38227)
(1.27653 2.04834 -5.22968)
(1.23751 2.05185 -5.22812)
(1.31405 -4.48056 9.37763)
(1.31405 2.03795 -5.23432)
(1.34862 -4.49744 9.3701)
(1.34862 2.02107 -5.24185)
(1.37893 -4.52015 9.35997)
(1.37893 1.99835 -5.25198)
(1.40381 -4.54783 9.34762)
(1.40381 1.97068 -5.26433)
(1.42229 -4.57941 9.33353)
(1.42229 1.9391 -5.27842)
(1.43367 -4.61367 9.31825)
(1.43367 1.90483 -5.2937)
(1.43751 -4.6493 9.30235)
(1.43751 1.8692 -5.3096)
(1.43367 -4.68494 9.28645)
(1.43367 1.83357 -5.3255)
(1.42229 -4.7192 9.27117)
(1.42229 1.7993 -5.34078)
(1.40381 -4.75078 9.25708)
(1.40381 1.76773 -5.35487)
(1.37893 -4.77845 9.24474)
(1.37893 1.74005 -5.36722)
(1.34862 -4.80117 9.2346)
(1.34862 1.71733 -5.37735)
(1.31405 -4.81805 9.22707)
(1.31405 1.70045 -5.38488)
(1.27653 -4.82844 9.22243)
(1.27653 1.69006 -5.38952)
(1.23751 -4.83195 9.22087)
(1.23751 1.68655 -5.39108)
(1.19849 -4.82844 9.22243)
(1.19849 1.69006 -5.38952)
(1.16097 -4.81805 9.22707)
(1.16097 1.70045 -5.38488)
(1.1264 -4.80117 9.2346)
(1.1264 1.71733 -5.37735)
(1.09609 -4.77845 9.24474)
(1.09609 1.74005 -5.36722)
(1.07122 -4.75078 9.25708)
(1.07122 1.76773 -5.35487)
(1.05273 -4.7192 9.27117)
(1.05273 1.7993 -5.34078)
(1.04135 -4.68494 9.28646)
(1.04135 1.83357 -5.3255)
(1.03751 -4.6493 9.30235)
(1.03751 1.8692 -5.3096)
(1.04135 -4.61367 9.31825)
(1.04135 1.90483 -5.2937)
(1.05274 -4.57941 9.33353)
(1.05274 1.9391 -5.27842)
(1.07122 -4.54783 9.34762)
(1.07122 1.97068 -5.26433)
(1.09609 -4.52015 9.35997)
(1.09609 1.99835 -5.25198)
(1.1264 -4.49744 9.3701)
(1.1264 2.02107 -5.24185)
(1.16097 -4.48056 9.37763)
(1.16097 2.03795 -5.23432)
(1.19849 -4.47016 9.38227)
(1.19849 2.04834 -5.22968)
(1.20263 -5.70312 -7.02082)
(1.24165 -5.69976 -7.02268)
(1.24165 2.01183 6.99629)
(1.20263 2.00846 6.99815)
(1.27917 -5.68978 -7.02816)
(1.27917 2.0218 6.99081)
(1.31375 -5.67359 -7.03707)
(1.31375 2.03799 6.9819)
(1.34405 -5.6518 -7.04906)
(1.34405 2.05979 6.96991)
(1.36893 -5.62524 -7.06366)
(1.36893 2.08634 6.95531)
(1.38741 -5.59494 -7.08033)
(1.38741 2.11664 6.93864)
(1.39879 -5.56207 -7.09841)
(1.39879 2.14951 6.92056)
(1.40263 -5.52788 -7.11722)
(1.40263 2.1837 6.90175)